<?xml version="1.0" encoding="UTF-8"?>

<!-- generated on 2025-04-08 00:12:54 by Eclipse SUMO netedit Version 1.22.0
-->

<routes xmlns:xsi="http://www.w3.org/2001/XMLSchema-instance" xsi:noNamespaceSchemaLocation="http://sumo.dlr.de/xsd/routes_file.xsd">
    <!-- VTypes -->
    <vType id="default" length="5.00" minGap="0.1" maxSpeed="50.00" carFollowModel="Krauss" accel="0.8" decel="0.5" sigma="0.0" tau="0.01"/>
    <!-- Routes -->
    <route id="r_0" edges="E0 E1 E6"/>
    <route id="r_1" edges="E2 -E7 -E6 -E5 -E4 -E3"/>
    <route id="r_10" edges="E11 E4 E5 -E1 E3"/>
    <route id="r_11" edges="E0 E2 -E7"/>
    <route id="r_12" edges="E7 -E2 E1 -E5"/>
    <route id="r_2" edges="-E2 E3 -E11 -E10 -E9"/>
    <route id="r_3" edges="-E1 -E0 E10"/>
    <route id="r_4" edges="-E2 -E0 -E9"/>
    <route id="r_5" edges="E0 E3 E4"/>
    <route id="r_6" edges="-E3 E1 -E5"/>
    <route id="r_7" edges="-E1 E2 E8 E9 E10"/>
    <route id="r_8" edges="-E3 E2 E8"/>
    <route id="r_9" edges="-E8 -E2 E1 -E5"/>
</routes>
