<?xml version="1.0" encoding="UTF-8"?>

<!-- generated on 2025-04-08 00:12:26 by Eclipse SUMO netedit Version 1.22.0
<neteditConfiguration xmlns:xsi="http://www.w3.org/2001/XMLSchema-instance" xsi:noNamespaceSchemaLocation="http://sumo.dlr.de/xsd/neteditConfiguration.xsd">

    <input>
        <sumocfg-file value="C:\eclipse-mosaic-24.1\scenarios\cenario\sumo\cenario.sumocfg"/>
        <additional-files value=""/>
        <route-files value="C:\eclipse-mosaic-24.1\scenarios\cenario\sumo\cenario.rou.xml"/>
        <sumo-net-file value="C:\eclipse-mosaic-24.1\scenarios\cenario\sumo\cenario.net.xml"/>
    </input>

    <output>
        <output-file value="C:\eclipse-mosaic-24.1\scenarios\cenario\sumo\cenario.net.xml"/>
    </output>

    <processing>
        <geometry.min-radius.fix.railways value="false"/>
        <geometry.max-grade.fix value="false"/>
        <offset.disable-normalization value="true"/>
        <lefthand value="0"/>
    </processing>

    <junctions>
        <no-turnarounds value="true"/>
        <junctions.corner-detail value="5"/>
        <junctions.limit-turn-speed value="5.50"/>
        <rectangular-lane-cut value="0"/>
    </junctions>

    <pedestrian>
        <walkingareas value="0"/>
    </pedestrian>

    <netedit>
        <ignore.routeelements value="false"/>
    </netedit>

</neteditConfiguration>
-->

<net version="1.20" junctionCornerDetail="5" limitTurnSpeed="5.50" xmlns:xsi="http://www.w3.org/2001/XMLSchema-instance" xsi:noNamespaceSchemaLocation="http://sumo.dlr.de/xsd/net_file.xsd">

    <location netOffset="-558918.42,-4588731.04" convBoundary="-200.00,800.00,0.00,1000.00" origBoundary="558918.420000,4588731.040000,559064.050000,4589057.900000" projParameter="+proj=utm +zone=29  +ellps=WGS84 +datum=WGS84 +units=m +no_defs"/>

    <edge id=":J0_0" function="internal">
        <lane id=":J0_0_0" index="0" speed="13.89" length="14.40" shape="-201.60,907.20 -201.60,892.80"/>
    </edge>
    <edge id=":J0_1" function="internal">
        <lane id=":J0_1_0" index="0" speed="8.00" length="4.07" shape="-201.60,907.20 -201.05,903.35 -200.96,903.20"/>
    </edge>
    <edge id=":J0_6" function="internal">
        <lane id=":J0_6_0" index="0" speed="8.00" length="10.13" shape="-200.96,903.20 -199.40,900.60 -196.65,898.95 -192.80,898.40"/>
    </edge>
    <edge id=":J0_2" function="internal">
        <lane id=":J0_2_0" index="0" speed="6.51" length="9.03" shape="-192.80,901.60 -195.25,901.95 -197.00,903.00 -198.05,904.75 -198.40,907.20"/>
    </edge>
    <edge id=":J0_3" function="internal">
        <lane id=":J0_3_0" index="0" speed="8.00" length="14.19" shape="-192.80,901.60 -196.65,901.05 -199.40,899.40 -201.05,896.65 -201.60,892.80"/>
    </edge>
    <edge id=":J0_4" function="internal">
        <lane id=":J0_4_0" index="0" speed="6.51" length="9.03" shape="-198.40,892.80 -198.05,895.25 -197.00,897.00 -195.25,898.05 -192.80,898.40"/>
    </edge>
    <edge id=":J0_5" function="internal">
        <lane id=":J0_5_0" index="0" speed="13.89" length="14.40" shape="-198.40,892.80 -198.40,907.20"/>
    </edge>
    <edge id=":J1_0" function="internal">
        <lane id=":J1_0_0" index="0" speed="6.51" length="9.03" shape="-101.60,907.20 -101.95,904.75 -103.00,903.00 -104.75,901.95 -107.20,901.60"/>
    </edge>
    <edge id=":J1_1" function="internal">
        <lane id=":J1_1_0" index="0" speed="13.89" length="14.40" shape="-101.60,907.20 -101.60,892.80"/>
    </edge>
    <edge id=":J1_2" function="internal">
        <lane id=":J1_2_0" index="0" speed="8.00" length="4.07" shape="-101.60,907.20 -101.05,903.35 -100.96,903.20"/>
    </edge>
    <edge id=":J1_12" function="internal">
        <lane id=":J1_12_0" index="0" speed="8.00" length="10.13" shape="-100.96,903.20 -99.40,900.60 -96.65,898.95 -92.80,898.40"/>
    </edge>
    <edge id=":J1_3" function="internal">
        <lane id=":J1_3_0" index="0" speed="6.51" length="9.03" shape="-92.80,901.60 -95.25,901.95 -97.00,903.00 -98.05,904.75 -98.40,907.20"/>
    </edge>
    <edge id=":J1_4" function="internal">
        <lane id=":J1_4_0" index="0" speed="13.89" length="14.40" shape="-92.80,901.60 -107.20,901.60"/>
    </edge>
    <edge id=":J1_5" function="internal">
        <lane id=":J1_5_0" index="0" speed="8.00" length="4.07" shape="-92.80,901.60 -96.65,901.05 -96.80,900.96"/>
    </edge>
    <edge id=":J1_13" function="internal">
        <lane id=":J1_13_0" index="0" speed="8.00" length="10.13" shape="-96.80,900.96 -99.40,899.40 -101.05,896.65 -101.60,892.80"/>
    </edge>
    <edge id=":J1_6" function="internal">
        <lane id=":J1_6_0" index="0" speed="6.51" length="9.03" shape="-98.40,892.80 -98.05,895.25 -97.00,897.00 -95.25,898.05 -92.80,898.40"/>
    </edge>
    <edge id=":J1_7" function="internal">
        <lane id=":J1_7_0" index="0" speed="13.89" length="14.40" shape="-98.40,892.80 -98.40,907.20"/>
    </edge>
    <edge id=":J1_8" function="internal">
        <lane id=":J1_8_0" index="0" speed="8.00" length="4.07" shape="-98.40,892.80 -98.95,896.65 -99.04,896.80"/>
    </edge>
    <edge id=":J1_14" function="internal">
        <lane id=":J1_14_0" index="0" speed="8.00" length="10.13" shape="-99.04,896.80 -100.60,899.40 -103.35,901.05 -107.20,901.60"/>
    </edge>
    <edge id=":J1_9" function="internal">
        <lane id=":J1_9_0" index="0" speed="6.51" length="9.03" shape="-107.20,898.40 -104.75,898.05 -103.00,897.00 -101.95,895.25 -101.60,892.80"/>
    </edge>
    <edge id=":J1_10" function="internal">
        <lane id=":J1_10_0" index="0" speed="13.89" length="14.40" shape="-107.20,898.40 -92.80,898.40"/>
    </edge>
    <edge id=":J1_11" function="internal">
        <lane id=":J1_11_0" index="0" speed="8.00" length="4.07" shape="-107.20,898.40 -103.35,898.95 -103.20,899.04"/>
    </edge>
    <edge id=":J1_15" function="internal">
        <lane id=":J1_15_0" index="0" speed="8.00" length="10.13" shape="-103.20,899.04 -100.60,900.60 -98.95,903.35 -98.40,907.20"/>
    </edge>
    <edge id=":J2_0" function="internal">
        <lane id=":J2_0_0" index="0" speed="6.51" length="9.03" shape="-1.60,907.20 -1.95,904.75 -3.00,903.00 -4.75,901.95 -7.20,901.60"/>
    </edge>
    <edge id=":J2_1" function="internal">
        <lane id=":J2_1_0" index="0" speed="13.89" length="14.40" shape="-1.60,907.20 -1.60,892.80"/>
    </edge>
    <edge id=":J2_2" function="internal">
        <lane id=":J2_2_0" index="0" speed="13.89" length="14.40" shape="1.60,892.80 1.60,907.20"/>
    </edge>
    <edge id=":J2_3" function="internal">
        <lane id=":J2_3_0" index="0" speed="8.00" length="4.07" shape="1.60,892.80 1.05,896.65 0.96,896.80"/>
    </edge>
    <edge id=":J2_6" function="internal">
        <lane id=":J2_6_0" index="0" speed="8.00" length="10.13" shape="0.96,896.80 -0.60,899.40 -3.35,901.05 -7.20,901.60"/>
    </edge>
    <edge id=":J2_4" function="internal">
        <lane id=":J2_4_0" index="0" speed="6.51" length="9.03" shape="-7.20,898.40 -4.75,898.05 -3.00,897.00 -1.95,895.25 -1.60,892.80"/>
    </edge>
    <edge id=":J2_5" function="internal">
        <lane id=":J2_5_0" index="0" speed="8.00" length="14.19" shape="-7.20,898.40 -3.35,898.95 -0.60,900.60 1.05,903.35 1.60,907.20"/>
    </edge>
    <edge id=":J3_0" function="internal">
        <lane id=":J3_0_0" index="0" speed="13.89" length="14.40" shape="-92.80,1001.60 -107.20,1001.60"/>
    </edge>
    <edge id=":J3_1" function="internal">
        <lane id=":J3_1_0" index="0" speed="8.00" length="4.07" shape="-92.80,1001.60 -96.65,1001.05 -96.80,1000.96"/>
    </edge>
    <edge id=":J3_6" function="internal">
        <lane id=":J3_6_0" index="0" speed="8.00" length="10.13" shape="-96.80,1000.96 -99.40,999.40 -101.05,996.65 -101.60,992.80"/>
    </edge>
    <edge id=":J3_2" function="internal">
        <lane id=":J3_2_0" index="0" speed="6.51" length="9.03" shape="-98.40,992.80 -98.05,995.25 -97.00,997.00 -95.25,998.05 -92.80,998.40"/>
    </edge>
    <edge id=":J3_3" function="internal">
        <lane id=":J3_3_0" index="0" speed="8.00" length="14.19" shape="-98.40,992.80 -98.95,996.65 -100.60,999.40 -103.35,1001.05 -107.20,1001.60"/>
    </edge>
    <edge id=":J3_4" function="internal">
        <lane id=":J3_4_0" index="0" speed="6.51" length="9.03" shape="-107.20,998.40 -104.75,998.05 -103.00,997.00 -101.95,995.25 -101.60,992.80"/>
    </edge>
    <edge id=":J3_5" function="internal">
        <lane id=":J3_5_0" index="0" speed="13.89" length="14.40" shape="-107.20,998.40 -92.80,998.40"/>
    </edge>
    <edge id=":J4_0" function="internal">
        <lane id=":J4_0_0" index="0" speed="6.51" length="9.03" shape="-101.60,807.20 -101.95,804.75 -103.00,803.00 -104.75,801.95 -107.20,801.60"/>
    </edge>
    <edge id=":J4_1" function="internal">
        <lane id=":J4_1_0" index="0" speed="8.00" length="14.19" shape="-101.60,807.20 -101.05,803.35 -99.40,800.60 -96.65,798.95 -92.80,798.40"/>
    </edge>
    <edge id=":J4_2" function="internal">
        <lane id=":J4_2_0" index="0" speed="6.51" length="9.03" shape="-92.80,801.60 -95.25,801.95 -97.00,803.00 -98.05,804.75 -98.40,807.20"/>
    </edge>
    <edge id=":J4_3" function="internal">
        <lane id=":J4_3_0" index="0" speed="13.89" length="14.40" shape="-92.80,801.60 -107.20,801.60"/>
    </edge>
    <edge id=":J4_4" function="internal">
        <lane id=":J4_4_0" index="0" speed="13.89" length="14.40" shape="-107.20,798.40 -92.80,798.40"/>
    </edge>
    <edge id=":J4_5" function="internal">
        <lane id=":J4_5_0" index="0" speed="8.00" length="4.07" shape="-107.20,798.40 -103.35,798.95 -103.20,799.04"/>
    </edge>
    <edge id=":J4_6" function="internal">
        <lane id=":J4_6_0" index="0" speed="8.00" length="10.13" shape="-103.20,799.04 -100.60,800.60 -98.95,803.35 -98.40,807.20"/>
    </edge>
    <edge id=":J5_0" function="internal">
        <lane id=":J5_0_0" index="0" speed="3.90" length="2.58" shape="-1.60,803.20 -1.70,802.50 -2.00,802.00 -2.50,801.70 -3.20,801.60"/>
    </edge>
    <edge id=":J5_1" function="internal">
        <lane id=":J5_1_0" index="0" speed="6.08" length="7.74" shape="-3.20,798.40 -1.10,798.70 0.40,799.60 1.30,801.10 1.60,803.20"/>
    </edge>
    <edge id=":J6_0" function="internal">
        <lane id=":J6_0_0" index="0" speed="6.08" length="7.74" shape="1.60,996.80 1.30,998.90 0.40,1000.40 -1.10,1001.30 -3.20,1001.60"/>
    </edge>
    <edge id=":J6_1" function="internal">
        <lane id=":J6_1_0" index="0" speed="3.90" length="2.58" shape="-3.20,998.40 -2.50,998.30 -2.00,998.00 -1.70,997.50 -1.60,996.80"/>
    </edge>
    <edge id=":J7_0" function="internal">
        <lane id=":J7_0_0" index="0" speed="6.08" length="7.74" shape="-196.80,1001.60 -198.90,1001.30 -200.40,1000.40 -201.30,998.90 -201.60,996.80"/>
    </edge>
    <edge id=":J7_1" function="internal">
        <lane id=":J7_1_0" index="0" speed="3.90" length="2.58" shape="-198.40,996.80 -198.30,997.50 -198.00,998.00 -197.50,998.30 -196.80,998.40"/>
    </edge>
    <edge id=":J8_0" function="internal">
        <lane id=":J8_0_0" index="0" speed="6.08" length="7.74" shape="-201.60,803.20 -201.30,801.10 -200.40,799.60 -198.90,798.70 -196.80,798.40"/>
    </edge>
    <edge id=":J8_1" function="internal">
        <lane id=":J8_1_0" index="0" speed="3.90" length="2.58" shape="-196.80,801.60 -197.50,801.70 -198.00,802.00 -198.30,802.50 -198.40,803.20"/>
    </edge>

    <edge id="-E0" from="J1" to="J0" priority="-1">
        <lane id="-E0_0" index="0" speed="13.89" length="85.60" shape="-107.20,901.60 -192.80,901.60"/>
    </edge>
    <edge id="-E1" from="J2" to="J1" priority="-1">
        <lane id="-E1_0" index="0" speed="13.89" length="85.60" shape="-7.20,901.60 -92.80,901.60"/>
    </edge>
    <edge id="-E10" from="J8" to="J0" priority="-1">
        <lane id="-E10_0" index="0" speed="13.89" length="89.60" shape="-198.40,803.20 -198.40,892.80"/>
    </edge>
    <edge id="-E11" from="J4" to="J8" priority="-1">
        <lane id="-E11_0" index="0" speed="13.89" length="89.60" shape="-107.20,801.60 -196.80,801.60"/>
    </edge>
    <edge id="-E2" from="J3" to="J1" priority="-1">
        <lane id="-E2_0" index="0" speed="13.89" length="85.60" shape="-101.60,992.80 -101.60,907.20"/>
    </edge>
    <edge id="-E3" from="J4" to="J1" priority="-1">
        <lane id="-E3_0" index="0" speed="13.89" length="85.60" shape="-98.40,807.20 -98.40,892.80"/>
    </edge>
    <edge id="-E4" from="J5" to="J4" priority="-1">
        <lane id="-E4_0" index="0" speed="13.89" length="89.60" shape="-3.20,801.60 -92.80,801.60"/>
    </edge>
    <edge id="-E5" from="J2" to="J5" priority="-1">
        <lane id="-E5_0" index="0" speed="13.89" length="89.60" shape="-1.60,892.80 -1.60,803.20"/>
    </edge>
    <edge id="-E6" from="J6" to="J2" priority="-1">
        <lane id="-E6_0" index="0" speed="13.89" length="89.60" shape="-1.60,996.80 -1.60,907.20"/>
    </edge>
    <edge id="-E7" from="J3" to="J6" priority="-1">
        <lane id="-E7_0" index="0" speed="13.89" length="89.60" shape="-92.80,998.40 -3.20,998.40"/>
    </edge>
    <edge id="-E8" from="J7" to="J3" priority="-1">
        <lane id="-E8_0" index="0" speed="13.89" length="89.60" shape="-196.80,998.40 -107.20,998.40"/>
    </edge>
    <edge id="-E9" from="J0" to="J7" priority="-1">
        <lane id="-E9_0" index="0" speed="13.89" length="89.60" shape="-198.40,907.20 -198.40,996.80"/>
    </edge>
    <edge id="E0" from="J0" to="J1" priority="-1">
        <lane id="E0_0" index="0" speed="13.89" length="85.60" shape="-192.80,898.40 -107.20,898.40"/>
    </edge>
    <edge id="E1" from="J1" to="J2" priority="-1">
        <lane id="E1_0" index="0" speed="13.89" length="85.60" shape="-92.80,898.40 -7.20,898.40"/>
    </edge>
    <edge id="E10" from="J0" to="J8" priority="-1">
        <lane id="E10_0" index="0" speed="13.89" length="89.60" shape="-201.60,892.80 -201.60,803.20"/>
    </edge>
    <edge id="E11" from="J8" to="J4" priority="-1">
        <lane id="E11_0" index="0" speed="13.89" length="89.60" shape="-196.80,798.40 -107.20,798.40"/>
    </edge>
    <edge id="E2" from="J1" to="J3" priority="-1">
        <lane id="E2_0" index="0" speed="13.89" length="85.60" shape="-98.40,907.20 -98.40,992.80"/>
    </edge>
    <edge id="E3" from="J1" to="J4" priority="-1">
        <lane id="E3_0" index="0" speed="13.89" length="85.60" shape="-101.60,892.80 -101.60,807.20"/>
    </edge>
    <edge id="E4" from="J4" to="J5" priority="-1">
        <lane id="E4_0" index="0" speed="13.89" length="89.60" shape="-92.80,798.40 -3.20,798.40"/>
    </edge>
    <edge id="E5" from="J5" to="J2" priority="-1">
        <lane id="E5_0" index="0" speed="13.89" length="89.60" shape="1.60,803.20 1.60,892.80"/>
    </edge>
    <edge id="E6" from="J2" to="J6" priority="-1">
        <lane id="E6_0" index="0" speed="13.89" length="89.60" shape="1.60,907.20 1.60,996.80"/>
    </edge>
    <edge id="E7" from="J6" to="J3" priority="-1">
        <lane id="E7_0" index="0" speed="13.89" length="89.60" shape="-3.20,1001.60 -92.80,1001.60"/>
    </edge>
    <edge id="E8" from="J3" to="J7" priority="-1">
        <lane id="E8_0" index="0" speed="13.89" length="89.60" shape="-107.20,1001.60 -196.80,1001.60"/>
    </edge>
    <edge id="E9" from="J7" to="J0" priority="-1">
        <lane id="E9_0" index="0" speed="13.89" length="89.60" shape="-201.60,996.80 -201.60,907.20"/>
    </edge>

    <tlLogic id="J0" type="static" programID="0" offset="0">
        <phase duration="42" state="GgrrGG"/>
        <phase duration="3"  state="yyrrGy"/>
        <phase duration="42" state="rrGGGr"/>
        <phase duration="3"  state="rryyGr"/>
    </tlLogic>
    <!-- <tlLogic id="J1" type="static" programID="0" offset="0">
        <phase duration="200" state="GGGGGGGGGGGG"/>
        <phase duration="4"  state="rrrrrrrrrrrr"/>
    </tlLogic> -->
    <tlLogic id="J1" type="static" programID="0" offset="0">
        <phase duration="42" state="GGgrrrGGgrrr"/>
        <phase duration="3" state="yyyrrryyyrrr"/>
        <phase duration="42" state="rrrGGgrrrGGg"/>
        <phase duration="3" state="rrryyyrrryyy"/>
        <!-- Fase 0: -E2 → -E0 -->
        <phase duration="3" state="Grrrrrrrrrrr"/>
        <!-- Fase 1: -E2 → E3 -->
        <phase duration="3" state="rGrrrrrrrrrr"/>
        <!-- Fase 2: -E2 → E1 -->
        <phase duration="3" state="rrGrrrrrrrrr"/>
        <!-- Fase 3: -E1 → E2 -->
        <phase duration="3" state="rrrGrrrrrrrr"/>
        <!-- Fase 4: -E1 → -E0 -->
        <phase duration="3" state="rrrrGrrrrrrr"/>
        <!-- Fase 5: -E1 → E3 -->
        <phase duration="3" state="rrrrrGrrrrrr"/>
        <!-- Fase 6: -E3 → E1 -->
        <phase duration="3" state="rrrrrrGrrrrr"/>
        <!-- Fase 7: -E3 → E2 -->
        <phase duration="3" state="rrrrrrrGrrrr"/>
        <!-- Fase 8: -E3 → -E0 -->
        <phase duration="3" state="rrrrrrrrGrrr"/>
        <!-- Fase 9: E0 → E3 -->
        <phase duration="3" state="rrrrrrrrrGrr"/>
        <!-- Fase 10: E0 → E1 -->
        <phase duration="3" state="rrrrrrrrrrGr"/>
        <!-- Fase 11: E0 → E2 -->
        <phase duration="3" state="rrrrrrrrrrrG"/>
        <!-- <phase duration="200" state="GGGGGGGGGGGG"/> -->
    </tlLogic>

    <tlLogic id="J2" type="static" programID="0" offset="0">
        <phase duration="42" state="GGGgrr"/>
        <phase duration="3"  state="Gyyyrr"/>
        <phase duration="42" state="GrrrGG"/>
        <phase duration="3"  state="Grrryy"/>
    </tlLogic>

    <junction id="J0" type="traffic_light" x="-200.00" y="900.00" incLanes="E9_0 -E0_0 -E10_0" intLanes=":J0_0_0 :J0_6_0 :J0_2_0 :J0_3_0 :J0_4_0 :J0_5_0" shape="-203.20,907.20 -196.80,907.20 -196.36,904.98 -195.80,904.20 -195.02,903.64 -194.02,903.31 -192.80,903.20 -192.80,896.80 -195.02,896.36 -195.80,895.80 -196.36,895.02 -196.69,894.02 -196.80,892.80 -203.20,892.80">
        <request index="0" response="000000" foes="001000" cont="0"/>
        <request index="1" response="110000" foes="111000" cont="1"/>
        <request index="2" response="100000" foes="100000" cont="0"/>
        <request index="3" response="100011" foes="100011" cont="0"/>
        <request index="4" response="000000" foes="000010" cont="0"/>
        <request index="5" response="000000" foes="001110" cont="0"/>
    </junction>
    <junction id="J1" type="traffic_light" x="-100.00" y="900.00" incLanes="-E2_0 -E1_0 -E3_0 E0_0" intLanes=":J1_0_0 :J1_1_0 :J1_12_0 :J1_3_0 :J1_4_0 :J1_13_0 :J1_6_0 :J1_7_0 :J1_14_0 :J1_9_0 :J1_10_0 :J1_15_0" shape="-103.20,907.20 -96.80,907.20 -96.36,904.98 -95.80,904.20 -95.02,903.64 -94.02,903.31 -92.80,903.20 -92.80,896.80 -95.02,896.36 -95.80,895.80 -96.36,895.02 -96.69,894.02 -96.80,892.80 -103.20,892.80 -103.64,895.02 -104.20,895.80 -104.98,896.36 -105.98,896.69 -107.20,896.80 -107.20,903.20 -104.98,903.64 -104.20,904.20 -103.64,904.98 -103.31,905.98">
        <request index="0"  response="000000000000" foes="000100010000" cont="0"/>
        <request index="1"  response="100000100000" foes="111100110000" cont="0"/>
        <request index="2"  response="100111100000" foes="110111110000" cont="1"/>
        <request index="3"  response="000010000000" foes="100010000000" cont="0"/>
        <request index="4"  response="000110000111" foes="100110000111" cont="0"/>
        <request index="5"  response="111110000110" foes="111110000110" cont="1"/>
        <request index="6"  response="000000000000" foes="010000000100" cont="0"/>
        <request index="7"  response="100000100000" foes="110000111100" cont="0"/>
        <request index="8"  response="100000100011" foes="110000110111" cont="1"/>
        <request index="9"  response="000000000010" foes="000000100010" cont="0"/>
        <request index="10" response="000111000110" foes="000111100110" cont="0"/>
        <request index="11" response="000110011110" foes="000110111110" cont="1"/>
    </junction>
    <junction id="J2" type="traffic_light" x="0.00" y="900.00" incLanes="-E6_0 E5_0 E1_0" intLanes=":J2_0_0 :J2_1_0 :J2_2_0 :J2_6_0 :J2_4_0 :J2_5_0" shape="-3.20,907.20 3.20,907.20 3.20,892.80 -3.20,892.80 -3.64,895.02 -4.20,895.80 -4.98,896.36 -5.98,896.69 -7.20,896.80 -7.20,903.20 -4.98,903.64 -4.20,904.20 -3.64,904.98 -3.31,905.98">
        <request index="0" response="000000" foes="001000" cont="0"/>
        <request index="1" response="000000" foes="111000" cont="0"/>
        <request index="2" response="000000" foes="100000" cont="0"/>
        <request index="3" response="000011" foes="100011" cont="1"/>
        <request index="4" response="000010" foes="000010" cont="0"/>
        <request index="5" response="001110" foes="001110" cont="0"/>
    </junction>
    <junction id="J3" type="priority" x="-100.00" y="1000.00" incLanes="E7_0 E2_0 -E8_0" intLanes=":J3_0_0 :J3_6_0 :J3_2_0 :J3_3_0 :J3_4_0 :J3_5_0" shape="-92.80,1003.20 -92.80,996.80 -95.02,996.36 -95.80,995.80 -96.36,995.02 -96.69,994.02 -96.80,992.80 -103.20,992.80 -103.64,995.02 -104.20,995.80 -104.98,996.36 -105.98,996.69 -107.20,996.80 -107.20,1003.20">
        <request index="0" response="000000" foes="001000" cont="0"/>
        <request index="1" response="110000" foes="111000" cont="1"/>
        <request index="2" response="100000" foes="100000" cont="0"/>
        <request index="3" response="100011" foes="100011" cont="0"/>
        <request index="4" response="000000" foes="000010" cont="0"/>
        <request index="5" response="000000" foes="001110" cont="0"/>
    </junction>
    <junction id="J4" type="priority" x="-100.00" y="800.00" incLanes="E3_0 -E4_0 E11_0" intLanes=":J4_0_0 :J4_1_0 :J4_2_0 :J4_3_0 :J4_4_0 :J4_6_0" shape="-103.20,807.20 -96.80,807.20 -96.36,804.98 -95.80,804.20 -95.02,803.64 -94.02,803.31 -92.80,803.20 -92.80,796.80 -107.20,796.80 -107.20,803.20 -104.98,803.64 -104.20,804.20 -103.64,804.98 -103.31,805.98">
        <request index="0" response="001000" foes="001000" cont="0"/>
        <request index="1" response="111000" foes="111000" cont="0"/>
        <request index="2" response="000000" foes="100000" cont="0"/>
        <request index="3" response="000000" foes="100011" cont="0"/>
        <request index="4" response="000000" foes="000010" cont="0"/>
        <request index="5" response="001100" foes="001110" cont="1"/>
    </junction>
    <junction id="J5" type="priority" x="0.00" y="800.00" incLanes="-E5_0 E4_0" intLanes=":J5_0_0 :J5_1_0" shape="-3.20,803.20 3.20,803.20 2.49,799.64 1.60,798.40 0.36,797.51 -1.24,796.98 -3.20,796.80">
        <request index="0" response="00" foes="00" cont="0"/>
        <request index="1" response="00" foes="00" cont="0"/>
    </junction>
    <junction id="J6" type="priority" x="0.00" y="1000.00" incLanes="E6_0 -E7_0" intLanes=":J6_0_0 :J6_1_0" shape="3.20,996.80 -3.20,996.80 -3.20,1003.20 0.36,1002.49 1.60,1001.60 2.49,1000.36 3.02,998.76">
        <request index="0" response="00" foes="00" cont="0"/>
        <request index="1" response="00" foes="00" cont="0"/>
    </junction>
    <junction id="J7" type="priority" x="-200.00" y="1000.00" incLanes="E8_0 -E9_0" intLanes=":J7_0_0 :J7_1_0" shape="-196.80,1003.20 -196.80,996.80 -203.20,996.80 -202.49,1000.36 -201.60,1001.60 -200.36,1002.49 -198.76,1003.02">
        <request index="0" response="00" foes="00" cont="0"/>
        <request index="1" response="00" foes="00" cont="0"/>
    </junction>
    <junction id="J8" type="priority" x="-200.00" y="800.00" incLanes="E10_0 -E11_0" intLanes=":J8_0_0 :J8_1_0" shape="-203.20,803.20 -196.80,803.20 -196.80,796.80 -200.36,797.51 -201.60,798.40 -202.49,799.64 -203.02,801.24">
        <request index="0" response="00" foes="00" cont="0"/>
        <request index="1" response="00" foes="00" cont="0"/>
    </junction>

    <junction id=":J0_6_0" type="internal" x="-200.96" y="903.20" incLanes=":J0_1_0 -E10_0" intLanes=":J0_3_0 :J0_4_0 :J0_5_0"/>
    <junction id=":J1_12_0" type="internal" x="-100.96" y="903.20" incLanes=":J1_2_0 -E3_0" intLanes=":J1_4_0 :J1_5_0 :J1_6_0 :J1_7_0 :J1_10_0 :J1_11_0"/>
    <junction id=":J1_13_0" type="internal" x="-96.80" y="900.96" incLanes=":J1_5_0 E0_0" intLanes=":J1_1_0 :J1_2_0 :J1_7_0 :J1_8_0 :J1_9_0 :J1_10_0"/>
    <junction id=":J1_14_0" type="internal" x="-99.04" y="896.80" incLanes=":J1_8_0 -E2_0" intLanes=":J1_0_0 :J1_1_0 :J1_4_0 :J1_5_0 :J1_10_0 :J1_11_0"/>
    <junction id=":J1_15_0" type="internal" x="-103.20" y="899.04" incLanes=":J1_11_0 -E1_0" intLanes=":J1_1_0 :J1_2_0 :J1_3_0 :J1_4_0 :J1_7_0 :J1_8_0"/>
    <junction id=":J2_6_0" type="internal" x="0.96" y="896.80" incLanes=":J2_3_0 -E6_0" intLanes=":J2_0_0 :J2_1_0 :J2_5_0"/>
    <junction id=":J3_6_0" type="internal" x="-96.80" y="1000.96" incLanes=":J3_1_0 -E8_0" intLanes=":J3_3_0 :J3_4_0 :J3_5_0"/>
    <junction id=":J4_6_0" type="internal" x="-103.20" y="799.04" incLanes=":J4_5_0 -E4_0" intLanes=":J4_1_0 :J4_2_0 :J4_3_0"/>

    <connection from="-E0" to="-E9" fromLane="0" toLane="0" via=":J0_2_0" tl="J0" linkIndex="2" dir="r" state="o"/>
    <connection from="-E0" to="E10" fromLane="0" toLane="0" via=":J0_3_0" tl="J0" linkIndex="3" dir="l" state="o"/>
    <connection from="-E1" to="E2" fromLane="0" toLane="0" via=":J1_3_0" tl="J1" linkIndex="3" dir="r" state="o"/>
    <connection from="-E1" to="-E0" fromLane="0" toLane="0" via=":J1_4_0" tl="J1" linkIndex="4" dir="s" state="o"/>
    <connection from="-E1" to="E3" fromLane="0" toLane="0" via=":J1_5_0" tl="J1" linkIndex="5" dir="l" state="o"/>
    <connection from="-E10" to="E0" fromLane="0" toLane="0" via=":J0_4_0" tl="J0" linkIndex="4" dir="r" state="O"/>
    <connection from="-E10" to="-E9" fromLane="0" toLane="0" via=":J0_5_0" tl="J0" linkIndex="5" dir="s" state="O"/>
    <connection from="-E11" to="-E10" fromLane="0" toLane="0" via=":J8_1_0" dir="r" state="M"/>
    <connection from="-E2" to="-E0" fromLane="0" toLane="0" via=":J1_0_0" tl="J1" linkIndex="0" dir="r" state="O"/>
    <connection from="-E2" to="E3" fromLane="0" toLane="0" via=":J1_1_0" tl="J1" linkIndex="1" dir="s" state="O"/>
    <connection from="-E2" to="E1" fromLane="0" toLane="0" via=":J1_2_0" tl="J1" linkIndex="2" dir="l" state="o"/>
    <connection from="-E3" to="E1" fromLane="0" toLane="0" via=":J1_6_0" tl="J1" linkIndex="6" dir="r" state="O"/>
    <connection from="-E3" to="E2" fromLane="0" toLane="0" via=":J1_7_0" tl="J1" linkIndex="7" dir="s" state="O"/>
    <connection from="-E3" to="-E0" fromLane="0" toLane="0" via=":J1_8_0" tl="J1" linkIndex="8" dir="l" state="o"/>
    <connection from="-E4" to="-E3" fromLane="0" toLane="0" via=":J4_2_0" dir="r" state="M"/>
    <connection from="-E4" to="-E11" fromLane="0" toLane="0" via=":J4_3_0" dir="s" state="M"/>
    <connection from="-E5" to="-E4" fromLane="0" toLane="0" via=":J5_0_0" dir="r" state="M"/>
    <connection from="-E6" to="-E1" fromLane="0" toLane="0" via=":J2_0_0" tl="J2" linkIndex="0" dir="r" state="O"/>
    <connection from="-E6" to="-E5" fromLane="0" toLane="0" via=":J2_1_0" tl="J2" linkIndex="1" dir="s" state="O"/>
    <connection from="-E7" to="-E6" fromLane="0" toLane="0" via=":J6_1_0" dir="r" state="M"/>
    <connection from="-E8" to="-E2" fromLane="0" toLane="0" via=":J3_4_0" dir="r" state="M"/>
    <connection from="-E8" to="-E7" fromLane="0" toLane="0" via=":J3_5_0" dir="s" state="M"/>
    <connection from="-E9" to="-E8" fromLane="0" toLane="0" via=":J7_1_0" dir="r" state="M"/>
    <connection from="E0" to="E3" fromLane="0" toLane="0" via=":J1_9_0" tl="J1" linkIndex="9" dir="r" state="o"/>
    <connection from="E0" to="E1" fromLane="0" toLane="0" via=":J1_10_0" tl="J1" linkIndex="10" dir="s" state="o"/>
    <connection from="E0" to="E2" fromLane="0" toLane="0" via=":J1_11_0" tl="J1" linkIndex="11" dir="l" state="o"/>
    <connection from="E1" to="-E5" fromLane="0" toLane="0" via=":J2_4_0" tl="J2" linkIndex="4" dir="r" state="o"/>
    <connection from="E1" to="E6" fromLane="0" toLane="0" via=":J2_5_0" tl="J2" linkIndex="5" dir="l" state="o"/>
    <connection from="E10" to="E11" fromLane="0" toLane="0" via=":J8_0_0" dir="l" state="M"/>
    <connection from="E11" to="E4" fromLane="0" toLane="0" via=":J4_4_0" dir="s" state="M"/>
    <connection from="E11" to="-E3" fromLane="0" toLane="0" via=":J4_5_0" dir="l" state="m"/>
    <connection from="E2" to="-E7" fromLane="0" toLane="0" via=":J3_2_0" dir="r" state="m"/>
    <connection from="E2" to="E8" fromLane="0" toLane="0" via=":J3_3_0" dir="l" state="m"/>
    <connection from="E3" to="-E11" fromLane="0" toLane="0" via=":J4_0_0" dir="r" state="m"/>
    <connection from="E3" to="E4" fromLane="0" toLane="0" via=":J4_1_0" dir="l" state="m"/>
    <connection from="E4" to="E5" fromLane="0" toLane="0" via=":J5_1_0" dir="l" state="M"/>
    <connection from="E5" to="E6" fromLane="0" toLane="0" via=":J2_2_0" tl="J2" linkIndex="2" dir="s" state="O"/>
    <connection from="E5" to="-E1" fromLane="0" toLane="0" via=":J2_3_0" tl="J2" linkIndex="3" dir="l" state="o"/>
    <connection from="E6" to="E7" fromLane="0" toLane="0" via=":J6_0_0" dir="l" state="M"/>
    <connection from="E7" to="E8" fromLane="0" toLane="0" via=":J3_0_0" dir="s" state="M"/>
    <connection from="E7" to="-E2" fromLane="0" toLane="0" via=":J3_1_0" dir="l" state="m"/>
    <connection from="E8" to="E9" fromLane="0" toLane="0" via=":J7_0_0" dir="l" state="M"/>
    <connection from="E9" to="E10" fromLane="0" toLane="0" via=":J0_0_0" tl="J0" linkIndex="0" dir="s" state="O"/>
    <connection from="E9" to="E0" fromLane="0" toLane="0" via=":J0_1_0" tl="J0" linkIndex="1" dir="l" state="o"/>

    <connection from=":J0_0" to="E10" fromLane="0" toLane="0" dir="s" state="M"/>
    <connection from=":J0_1" to="E0" fromLane="0" toLane="0" via=":J0_6_0" dir="l" state="m"/>